
*** ChampSim Multicore Out-of-Order Simulator ***

Warmup Instructions: 20000
Simulation Instructions: 10000000
Number of CPUs: 2
Off-chip DRAM Size: 4 GiB Channels: 1 Width: 64-bit Data Rate: 3200 MT/s

VirtualMemory physical capacity: 8588881920 num_ppages: 2096895
VirtualMemory page size: 4096 log2_page_size: 12

CPU 0 runs ../400.perlbench-41B.champsimtrace.xz
